BEGIN OPTIONS
END OPTIONS

BEGIN DIMENSIONS
  NCPL 478
  NLAY 2
  NVERT 547
END DIMENSIONS

BEGIN GRIDDATA
  TOP
    INTERNAL
100.0 100.0 100.0 100.0 100.0 100.0 100.0 100.0 100.0 100.0 100.0 100.0 100.0 100.0 100.0 100.0 100.0 100.0 100.0 100.0 100.0 100.0 100.0 100.0 100.0 100.0 100.0 100.0 100.0 100.0 100.0 100.0 100.0 100.0 100.0 100.0 100.0 100.0 100.0 100.0 100.0 100.0 100.0 100.0 100.0 100.0 100.0 100.0 100.0 100.0 100.0 100.0 100.0 100.0 100.0 100.0 100.0 100.0 100.0 100.0 100.0 100.0 100.0 100.0 100.0 100.0 100.0 100.0 100.0 100.0 100.0 100.0 100.0 100.0 100.0 100.0 100.0 100.0 100.0 100.0 100.0 100.0 100.0 100.0 100.0 100.0 100.0 100.0 100.0 100.0 100.0 100.0 100.0 100.0 100.0 100.0 100.0 100.0 100.0 100.0 100.0 100.0 100.0 100.0 100.0 100.0 100.0 100.0 100.0 100.0 100.0 100.0 100.0 100.0 100.0 100.0 100.0 100.0 100.0 100.0 100.0 100.0 100.0 100.0 100.0 100.0 100.0 100.0 100.0 100.0 100.0 100.0 100.0 100.0 100.0 100.0 100.0 100.0 100.0 100.0 100.0 100.0 100.0 100.0 100.0 100.0 100.0 100.0 100.0 100.0 100.0 100.0 100.0 100.0 100.0 100.0 100.0 100.0 100.0 100.0 100.0 100.0 100.0 100.0 100.0 100.0 100.0 100.0 100.0 100.0 100.0 100.0 100.0 100.0 100.0 100.0 100.0 100.0 100.0 100.0 100.0 100.0 100.0 100.0 100.0 100.0 100.0 100.0 100.0 100.0 100.0 100.0 100.0 100.0 100.0 100.0 100.0 100.0 100.0 100.0 100.0 100.0 100.0 100.0 100.0 100.0 100.0 100.0 100.0 100.0 100.0 100.0 100.0 100.0 100.0 100.0 100.0 100.0 100.0 100.0 100.0 100.0 100.0 100.0 100.0 100.0 100.0 100.0 100.0 100.0 100.0 100.0 100.0 100.0 100.0 100.0 100.0 100.0 100.0 100.0 100.0 100.0 100.0 100.0 100.0 100.0 100.0 100.0 100.0 100.0 100.0 100.0 100.0 100.0 100.0 100.0 100.0 100.0 100.0 100.0 100.0 100.0 100.0 100.0 100.0 100.0 100.0 100.0 100.0 100.0 100.0 100.0 100.0 100.0 100.0 100.0 100.0 100.0 100.0 100.0 100.0 100.0 100.0 100.0 100.0 100.0 100.0 100.0 100.0 100.0 100.0 100.0 100.0 100.0 100.0 100.0 100.0 100.0 100.0 100.0 100.0 100.0 100.0 100.0 100.0 100.0 100.0 100.0 100.0 100.0 100.0 100.0 100.0 100.0 100.0 100.0 100.0 100.0 100.0 100.0 100.0 100.0 100.0 100.0 100.0 100.0 100.0 100.0 100.0 100.0 100.0 100.0 100.0 100.0 100.0 100.0 100.0 100.0 100.0 100.0 100.0 100.0 100.0 100.0 100.0 100.0 100.0 100.0 100.0 100.0 100.0 100.0 100.0 100.0 100.0 100.0 100.0 100.0 100.0 100.0 100.0 100.0 100.0 100.0 100.0 100.0 100.0 100.0 100.0 100.0 100.0 100.0 100.0 100.0 100.0 100.0 100.0 100.0 100.0 100.0 100.0 100.0 100.0 100.0 100.0 100.0 100.0 100.0 100.0 100.0 100.0 100.0 100.0 100.0 100.0 100.0 100.0 100.0 100.0 100.0 100.0 100.0 100.0 100.0 100.0 100.0 100.0 100.0 100.0 100.0 100.0 100.0 100.0 100.0 100.0 100.0 100.0 100.0 100.0 100.0 100.0 100.0 100.0 100.0 100.0 100.0 100.0 100.0 100.0 100.0 100.0 100.0 100.0 100.0 100.0 100.0 100.0 100.0 100.0 100.0 100.0 100.0 100.0 100.0 100.0 100.0 100.0 100.0 100.0 100.0 100.0 100.0 100.0 100.0 100.0 100.0 100.0 100.0 100.0 100.0 100.0 100.0 100.0 100.0 100.0 100.0 100.0 100.0 100.0 100.0 100.0 100.0 100.0 100.0 100.0 100.0 100.0 100.0 
  BOTM
    INTERNAL
80.0 80.0 80.0 80.0 80.0 80.0 80.0 80.0 80.0 80.0 80.0 80.0 80.0 80.0 80.0 80.0 80.0 80.0 80.0 80.0 80.0 80.0 80.0 80.0 80.0 80.0 80.0 80.0 80.0 80.0 80.0 80.0 80.0 80.0 80.0 80.0 80.0 80.0 80.0 80.0 80.0 80.0 80.0 80.0 80.0 80.0 80.0 80.0 80.0 80.0 80.0 80.0 80.0 80.0 80.0 80.0 80.0 80.0 80.0 80.0 80.0 80.0 80.0 80.0 80.0 80.0 80.0 80.0 80.0 80.0 80.0 80.0 80.0 80.0 80.0 80.0 80.0 80.0 80.0 80.0 80.0 80.0 80.0 80.0 80.0 80.0 80.0 80.0 80.0 80.0 80.0 80.0 80.0 80.0 80.0 80.0 80.0 80.0 80.0 80.0 80.0 80.0 80.0 80.0 80.0 80.0 80.0 80.0 80.0 80.0 80.0 80.0 80.0 80.0 80.0 80.0 80.0 80.0 80.0 80.0 80.0 80.0 80.0 80.0 80.0 80.0 80.0 80.0 80.0 80.0 80.0 80.0 80.0 80.0 80.0 80.0 80.0 80.0 80.0 80.0 80.0 80.0 80.0 80.0 80.0 80.0 80.0 80.0 80.0 80.0 80.0 80.0 80.0 80.0 80.0 80.0 80.0 80.0 80.0 80.0 80.0 80.0 80.0 80.0 80.0 80.0 80.0 80.0 80.0 80.0 80.0 80.0 80.0 80.0 80.0 80.0 80.0 80.0 80.0 80.0 80.0 80.0 80.0 80.0 80.0 80.0 80.0 80.0 80.0 80.0 80.0 80.0 80.0 80.0 80.0 80.0 80.0 80.0 80.0 80.0 80.0 80.0 80.0 80.0 80.0 80.0 80.0 80.0 80.0 80.0 80.0 80.0 80.0 80.0 80.0 80.0 80.0 80.0 80.0 80.0 80.0 80.0 80.0 80.0 80.0 80.0 80.0 80.0 80.0 80.0 80.0 80.0 80.0 80.0 80.0 80.0 80.0 80.0 80.0 80.0 80.0 80.0 80.0 80.0 80.0 80.0 80.0 80.0 80.0 80.0 80.0 80.0 80.0 80.0 80.0 80.0 80.0 80.0 80.0 80.0 80.0 80.0 80.0 80.0 80.0 80.0 80.0 80.0 80.0 80.0 80.0 80.0 80.0 80.0 80.0 80.0 80.0 80.0 80.0 80.0 80.0 80.0 80.0 80.0 80.0 80.0 80.0 80.0 80.0 80.0 80.0 80.0 80.0 80.0 80.0 80.0 80.0 80.0 80.0 80.0 80.0 80.0 80.0 80.0 80.0 80.0 80.0 80.0 80.0 80.0 80.0 80.0 80.0 80.0 80.0 80.0 80.0 80.0 80.0 80.0 80.0 80.0 80.0 80.0 80.0 80.0 80.0 80.0 80.0 80.0 80.0 80.0 80.0 80.0 80.0 80.0 80.0 80.0 80.0 80.0 80.0 80.0 80.0 80.0 80.0 80.0 80.0 80.0 80.0 80.0 80.0 80.0 80.0 80.0 80.0 80.0 80.0 80.0 80.0 80.0 80.0 80.0 80.0 80.0 80.0 80.0 80.0 80.0 80.0 80.0 80.0 80.0 80.0 80.0 80.0 80.0 80.0 80.0 80.0 80.0 80.0 80.0 80.0 80.0 80.0 80.0 80.0 80.0 80.0 80.0 80.0 80.0 80.0 80.0 80.0 80.0 80.0 80.0 80.0 80.0 80.0 80.0 80.0 80.0 80.0 80.0 80.0 80.0 80.0 80.0 80.0 80.0 80.0 80.0 80.0 80.0 80.0 80.0 80.0 80.0 80.0 80.0 80.0 80.0 80.0 80.0 80.0 80.0 80.0 80.0 80.0 80.0 80.0 80.0 80.0 80.0 80.0 80.0 80.0 80.0 80.0 80.0 80.0 80.0 80.0 80.0 80.0 80.0 80.0 80.0 80.0 80.0 80.0 80.0 80.0 80.0 80.0 80.0 80.0 80.0 80.0 80.0 80.0 80.0 80.0 80.0 80.0 80.0 80.0 80.0 80.0 80.0 80.0 80.0 80.0 80.0 80.0 80.0 60.0 60.0 60.0 60.0 60.0 60.0 60.0 60.0 60.0 60.0 60.0 60.0 60.0 60.0 60.0 60.0 60.0 60.0 60.0 60.0 60.0 60.0 60.0 60.0 60.0 60.0 60.0 60.0 60.0 60.0 60.0 60.0 60.0 60.0 60.0 60.0 60.0 60.0 60.0 60.0 60.0 60.0 60.0 60.0 60.0 60.0 60.0 60.0 60.0 60.0 60.0 60.0 60.0 60.0 60.0 60.0 60.0 60.0 60.0 60.0 60.0 60.0 60.0 60.0 60.0 60.0 60.0 60.0 60.0 60.0 60.0 60.0 60.0 60.0 60.0 60.0 60.0 60.0 60.0 60.0 60.0 60.0 60.0 60.0 60.0 60.0 60.0 60.0 60.0 60.0 60.0 60.0 60.0 60.0 60.0 60.0 60.0 60.0 60.0 60.0 60.0 60.0 60.0 60.0 60.0 60.0 60.0 60.0 60.0 60.0 60.0 60.0 60.0 60.0 60.0 60.0 60.0 60.0 60.0 60.0 60.0 60.0 60.0 60.0 60.0 60.0 60.0 60.0 60.0 60.0 60.0 60.0 60.0 60.0 60.0 60.0 60.0 60.0 60.0 60.0 60.0 60.0 60.0 60.0 60.0 60.0 60.0 60.0 60.0 60.0 60.0 60.0 60.0 60.0 60.0 60.0 60.0 60.0 60.0 60.0 60.0 60.0 60.0 60.0 60.0 60.0 60.0 60.0 60.0 60.0 60.0 60.0 60.0 60.0 60.0 60.0 60.0 60.0 60.0 60.0 60.0 60.0 60.0 60.0 60.0 60.0 60.0 60.0 60.0 60.0 60.0 60.0 60.0 60.0 60.0 60.0 60.0 60.0 60.0 60.0 60.0 60.0 60.0 60.0 60.0 60.0 60.0 60.0 60.0 60.0 60.0 60.0 60.0 60.0 60.0 60.0 60.0 60.0 60.0 60.0 60.0 60.0 60.0 60.0 60.0 60.0 60.0 60.0 60.0 60.0 60.0 60.0 60.0 60.0 60.0 60.0 60.0 60.0 60.0 60.0 60.0 60.0 60.0 60.0 60.0 60.0 60.0 60.0 60.0 60.0 60.0 60.0 60.0 60.0 60.0 60.0 60.0 60.0 60.0 60.0 60.0 60.0 60.0 60.0 60.0 60.0 60.0 60.0 60.0 60.0 60.0 60.0 60.0 60.0 60.0 60.0 60.0 60.0 60.0 60.0 60.0 60.0 60.0 60.0 60.0 60.0 60.0 60.0 60.0 60.0 60.0 60.0 60.0 60.0 60.0 60.0 60.0 60.0 60.0 60.0 60.0 60.0 60.0 60.0 60.0 60.0 60.0 60.0 60.0 60.0 60.0 60.0 60.0 60.0 60.0 60.0 60.0 60.0 60.0 60.0 60.0 60.0 60.0 60.0 60.0 60.0 60.0 60.0 60.0 60.0 60.0 60.0 60.0 60.0 60.0 60.0 60.0 60.0 60.0 60.0 60.0 60.0 60.0 60.0 60.0 60.0 60.0 60.0 60.0 60.0 60.0 60.0 60.0 60.0 60.0 60.0 60.0 60.0 60.0 60.0 60.0 60.0 60.0 60.0 60.0 60.0 60.0 60.0 60.0 60.0 60.0 60.0 60.0 60.0 60.0 60.0 60.0 60.0 60.0 60.0 60.0 60.0 60.0 60.0 60.0 60.0 60.0 60.0 60.0 60.0 60.0 60.0 60.0 60.0 60.0 60.0 60.0 60.0 60.0 60.0 60.0 60.0 60.0 60.0 60.0 60.0 60.0 60.0 60.0 60.0 60.0 60.0 60.0 60.0 60.0 60.0 60.0 60.0 60.0 60.0 60.0 60.0 60.0 60.0 60.0 60.0 60.0 60.0 60.0 60.0 60.0 60.0 60.0 60.0 60.0 60.0 60.0 60.0 60.0 60.0 60.0 60.0 60.0 60.0 60.0 60.0 60.0 60.0 60.0 60.0 60.0 60.0 60.0 60.0 60.0 60.0 60.0 60.0 60.0 60.0 60.0 60.0 60.0 60.0 60.0 60.0 60.0 60.0 60.0 60.0 60.0 60.0 60.0 60.0 60.0 60.0 60.0 60.0 
END GRIDDATA

BEGIN VERTICES
  1 0.0 1000.0
  2 50.0 1000.0
  3 50.0 950.0
  4 0.0 950.0
  5 100.0 1000.0
  6 100.0 950.0
  7 150.0 1000.0
  8 150.0 950.0
  9 200.0 1000.0
  10 200.0 950.0
  11 250.0 1000.0
  12 250.0 950.0
  13 300.0 1000.0
  14 300.0 950.0
  15 350.0 1000.0
  16 350.0 950.0
  17 400.0 1000.0
  18 400.0 950.0
  19 450.0 1000.0
  20 450.0 950.0
  21 500.0 1000.0
  22 500.0 950.0
  23 550.0 1000.0
  24 550.0 950.0
  25 600.0 1000.0
  26 600.0 950.0
  27 650.0 1000.0
  28 650.0 950.0
  29 700.0 1000.0
  30 700.0 950.0
  31 750.0 1000.0
  32 750.0 950.0
  33 800.0 1000.0
  34 800.0 950.0
  35 850.0 1000.0
  36 850.0 950.0
  37 900.0 1000.0
  38 900.0 950.0
  39 950.0 1000.0
  40 950.0 950.0
  41 1000.0 1000.0
  42 1000.0 950.0
  43 50.0 900.0
  44 0.0 900.0
  45 100.0 900.0
  46 150.0 900.0
  47 200.0 900.0
  48 250.0 900.0
  49 300.0 900.0
  50 350.0 900.0
  51 400.0 900.0
  52 450.0 900.0
  53 500.0 900.0
  54 550.0 900.0
  55 600.0 900.0
  56 650.0 900.0
  57 700.0 900.0
  58 750.0 900.0
  59 800.0 900.0
  60 850.0 900.0
  61 900.0 900.0
  62 950.0 900.0
  63 1000.0 900.0
  64 50.0 850.0
  65 0.0 850.0
  66 100.0 850.0
  67 150.0 850.0
  68 200.0 850.0
  69 250.0 850.0
  70 300.0 850.0
  71 350.0 850.0
  72 400.0 850.0
  73 450.0 850.0
  74 500.0 850.0
  75 550.0 850.0
  76 600.0 850.0
  77 625.0 900.0
  78 625.0 875.0
  79 600.0 875.0
  80 650.0 875.0
  81 625.0 850.0
  82 650.0 850.0
  83 700.0 850.0
  84 750.0 850.0
  85 800.0 850.0
  86 850.0 850.0
  87 900.0 850.0
  88 950.0 850.0
  89 1000.0 850.0
  90 50.0 800.0
  91 0.0 800.0
  92 100.0 800.0
  93 150.0 800.0
  94 200.0 800.0
  95 250.0 800.0
  96 300.0 800.0
  97 350.0 800.0
  98 400.0 800.0
  99 450.0 800.0
  100 500.0 800.0
  101 550.0 800.0
  102 575.0 850.0
  103 575.0 825.0
  104 550.0 825.0
  105 600.0 825.0
  106 575.0 800.0
  107 600.0 800.0
  108 612.5 850.0
  109 612.5 837.5
  110 600.0 837.5
  111 625.0 837.5
  112 612.5 825.0
  113 618.75 837.5
  114 618.75 831.25
  115 612.5 831.25
  116 625.0 831.25
  117 618.75 825.0
  118 625.0 825.0
  119 637.5 850.0
  120 637.5 837.5
  121 650.0 837.5
  122 631.25 837.5
  123 631.25 831.25
  124 637.5 831.25
  125 631.25 825.0
  126 637.5 825.0
  127 650.0 825.0
  128 612.5 812.5
  129 600.0 812.5
  130 618.75 818.75
  131 612.5 818.75
  132 625.0 818.75
  133 618.75 812.5
  134 625.0 812.5
  135 612.5 800.0
  136 625.0 800.0
  137 631.25 818.75
  138 637.5 818.75
  139 631.25 812.5
  140 637.5 812.5
  141 650.0 812.5
  142 637.5 800.0
  143 650.0 800.0
  144 675.0 850.0
  145 675.0 825.0
  146 700.0 825.0
  147 675.0 800.0
  148 700.0 800.0
  149 750.0 800.0
  150 800.0 800.0
  151 850.0 800.0
  152 900.0 800.0
  153 950.0 800.0
  154 1000.0 800.0
  155 50.0 750.0
  156 0.0 750.0
  157 100.0 750.0
  158 150.0 750.0
  159 200.0 750.0
  160 250.0 750.0
  161 300.0 750.0
  162 350.0 750.0
  163 400.0 750.0
  164 450.0 750.0
  165 500.0 750.0
  166 550.0 750.0
  167 600.0 750.0
  168 625.0 775.0
  169 600.0 775.0
  170 650.0 775.0
  171 625.0 750.0
  172 650.0 750.0
  173 700.0 750.0
  174 750.0 750.0
  175 800.0 750.0
  176 850.0 750.0
  177 900.0 750.0
  178 950.0 750.0
  179 1000.0 750.0
  180 50.0 700.0
  181 0.0 700.0
  182 100.0 700.0
  183 150.0 700.0
  184 200.0 700.0
  185 250.0 700.0
  186 300.0 700.0
  187 350.0 700.0
  188 400.0 700.0
  189 450.0 700.0
  190 500.0 700.0
  191 550.0 700.0
  192 600.0 700.0
  193 650.0 700.0
  194 700.0 700.0
  195 750.0 700.0
  196 800.0 700.0
  197 850.0 700.0
  198 900.0 700.0
  199 950.0 700.0
  200 1000.0 700.0
  201 50.0 650.0
  202 0.0 650.0
  203 100.0 650.0
  204 150.0 650.0
  205 200.0 650.0
  206 250.0 650.0
  207 300.0 650.0
  208 350.0 650.0
  209 400.0 650.0
  210 450.0 650.0
  211 500.0 650.0
  212 550.0 650.0
  213 600.0 650.0
  214 650.0 650.0
  215 700.0 650.0
  216 750.0 650.0
  217 800.0 650.0
  218 850.0 650.0
  219 900.0 650.0
  220 950.0 650.0
  221 1000.0 650.0
  222 50.0 600.0
  223 0.0 600.0
  224 100.0 600.0
  225 150.0 600.0
  226 200.0 600.0
  227 250.0 600.0
  228 300.0 600.0
  229 350.0 600.0
  230 400.0 600.0
  231 450.0 600.0
  232 500.0 600.0
  233 550.0 600.0
  234 600.0 600.0
  235 650.0 600.0
  236 700.0 600.0
  237 750.0 600.0
  238 800.0 600.0
  239 850.0 600.0
  240 900.0 600.0
  241 950.0 600.0
  242 1000.0 600.0
  243 50.0 550.0
  244 0.0 550.0
  245 100.0 550.0
  246 150.0 550.0
  247 200.0 550.0
  248 250.0 550.0
  249 300.0 550.0
  250 350.0 550.0
  251 400.0 550.0
  252 450.0 550.0
  253 500.0 550.0
  254 550.0 550.0
  255 600.0 550.0
  256 650.0 550.0
  257 700.0 550.0
  258 750.0 550.0
  259 800.0 550.0
  260 850.0 550.0
  261 900.0 550.0
  262 950.0 550.0
  263 1000.0 550.0
  264 50.0 500.0
  265 0.0 500.0
  266 100.0 500.0
  267 150.0 500.0
  268 200.0 500.0
  269 250.0 500.0
  270 300.0 500.0
  271 350.0 500.0
  272 400.0 500.0
  273 450.0 500.0
  274 500.0 500.0
  275 550.0 500.0
  276 600.0 500.0
  277 650.0 500.0
  278 700.0 500.0
  279 750.0 500.0
  280 800.0 500.0
  281 850.0 500.0
  282 900.0 500.0
  283 950.0 500.0
  284 1000.0 500.0
  285 50.0 450.0
  286 0.0 450.0
  287 100.0 450.0
  288 150.0 450.0
  289 200.0 450.0
  290 250.0 450.0
  291 300.0 450.0
  292 350.0 450.0
  293 400.0 450.0
  294 425.0 500.0
  295 425.0 475.0
  296 400.0 475.0
  297 450.0 475.0
  298 425.0 450.0
  299 450.0 450.0
  300 500.0 450.0
  301 550.0 450.0
  302 600.0 450.0
  303 650.0 450.0
  304 700.0 450.0
  305 750.0 450.0
  306 800.0 450.0
  307 850.0 450.0
  308 900.0 450.0
  309 950.0 450.0
  310 1000.0 450.0
  311 50.0 400.0
  312 0.0 400.0
  313 100.0 400.0
  314 150.0 400.0
  315 200.0 400.0
  316 250.0 400.0
  317 300.0 400.0
  318 350.0 400.0
  319 375.0 450.0
  320 375.0 425.0
  321 350.0 425.0
  322 400.0 425.0
  323 375.0 400.0
  324 400.0 400.0
  325 412.5 450.0
  326 412.5 437.5
  327 400.0 437.5
  328 425.0 437.5
  329 412.5 425.0
  330 418.75 437.5
  331 418.75 431.25
  332 412.5 431.25
  333 425.0 431.25
  334 418.75 425.0
  335 425.0 425.0
  336 437.5 450.0
  337 437.5 437.5
  338 450.0 437.5
  339 431.25 437.5
  340 431.25 431.25
  341 437.5 431.25
  342 431.25 425.0
  343 437.5 425.0
  344 450.0 425.0
  345 412.5 412.5
  346 400.0 412.5
  347 418.75 418.75
  348 412.5 418.75
  349 425.0 418.75
  350 418.75 412.5
  351 425.0 412.5
  352 412.5 400.0
  353 425.0 400.0
  354 431.25 418.75
  355 437.5 418.75
  356 431.25 412.5
  357 437.5 412.5
  358 450.0 412.5
  359 437.5 400.0
  360 450.0 400.0
  361 475.0 450.0
  362 475.0 425.0
  363 500.0 425.0
  364 475.0 400.0
  365 500.0 400.0
  366 550.0 400.0
  367 600.0 400.0
  368 650.0 400.0
  369 700.0 400.0
  370 750.0 400.0
  371 800.0 400.0
  372 850.0 400.0
  373 900.0 400.0
  374 950.0 400.0
  375 1000.0 400.0
  376 50.0 350.0
  377 0.0 350.0
  378 100.0 350.0
  379 150.0 350.0
  380 200.0 350.0
  381 250.0 350.0
  382 300.0 350.0
  383 350.0 350.0
  384 400.0 350.0
  385 425.0 375.0
  386 400.0 375.0
  387 450.0 375.0
  388 425.0 350.0
  389 450.0 350.0
  390 500.0 350.0
  391 550.0 350.0
  392 600.0 350.0
  393 650.0 350.0
  394 700.0 350.0
  395 750.0 350.0
  396 800.0 350.0
  397 850.0 350.0
  398 900.0 350.0
  399 950.0 350.0
  400 1000.0 350.0
  401 50.0 300.0
  402 0.0 300.0
  403 100.0 300.0
  404 150.0 300.0
  405 200.0 300.0
  406 250.0 300.0
  407 300.0 300.0
  408 350.0 300.0
  409 400.0 300.0
  410 450.0 300.0
  411 500.0 300.0
  412 550.0 300.0
  413 600.0 300.0
  414 650.0 300.0
  415 700.0 300.0
  416 750.0 300.0
  417 800.0 300.0
  418 850.0 300.0
  419 900.0 300.0
  420 950.0 300.0
  421 1000.0 300.0
  422 50.0 250.0
  423 0.0 250.0
  424 100.0 250.0
  425 150.0 250.0
  426 200.0 250.0
  427 250.0 250.0
  428 300.0 250.0
  429 350.0 250.0
  430 400.0 250.0
  431 450.0 250.0
  432 500.0 250.0
  433 550.0 250.0
  434 600.0 250.0
  435 650.0 250.0
  436 700.0 250.0
  437 750.0 250.0
  438 800.0 250.0
  439 850.0 250.0
  440 900.0 250.0
  441 950.0 250.0
  442 1000.0 250.0
  443 50.0 200.0
  444 0.0 200.0
  445 100.0 200.0
  446 150.0 200.0
  447 200.0 200.0
  448 250.0 200.0
  449 300.0 200.0
  450 350.0 200.0
  451 400.0 200.0
  452 450.0 200.0
  453 500.0 200.0
  454 550.0 200.0
  455 600.0 200.0
  456 650.0 200.0
  457 700.0 200.0
  458 750.0 200.0
  459 800.0 200.0
  460 850.0 200.0
  461 900.0 200.0
  462 950.0 200.0
  463 1000.0 200.0
  464 50.0 150.0
  465 0.0 150.0
  466 100.0 150.0
  467 150.0 150.0
  468 200.0 150.0
  469 250.0 150.0
  470 300.0 150.0
  471 350.0 150.0
  472 400.0 150.0
  473 450.0 150.0
  474 500.0 150.0
  475 550.0 150.0
  476 600.0 150.0
  477 650.0 150.0
  478 700.0 150.0
  479 750.0 150.0
  480 800.0 150.0
  481 850.0 150.0
  482 900.0 150.0
  483 950.0 150.0
  484 1000.0 150.0
  485 50.0 100.0
  486 0.0 100.0
  487 100.0 100.0
  488 150.0 100.0
  489 200.0 100.0
  490 250.0 100.0
  491 300.0 100.0
  492 350.0 100.0
  493 400.0 100.0
  494 450.0 100.0
  495 500.0 100.0
  496 550.0 100.0
  497 600.0 100.0
  498 650.0 100.0
  499 700.0 100.0
  500 750.0 100.0
  501 800.0 100.0
  502 850.0 100.0
  503 900.0 100.0
  504 950.0 100.0
  505 1000.0 100.0
  506 50.0 50.0
  507 0.0 50.0
  508 100.0 50.0
  509 150.0 50.0
  510 200.0 50.0
  511 250.0 50.0
  512 300.0 50.0
  513 350.0 50.0
  514 400.0 50.0
  515 450.0 50.0
  516 500.0 50.0
  517 550.0 50.0
  518 600.0 50.0
  519 650.0 50.0
  520 700.0 50.0
  521 750.0 50.0
  522 800.0 50.0
  523 850.0 50.0
  524 900.0 50.0
  525 950.0 50.0
  526 1000.0 50.0
  527 50.0 0.0
  528 0.0 0.0
  529 100.0 0.0
  530 150.0 0.0
  531 200.0 0.0
  532 250.0 0.0
  533 300.0 0.0
  534 350.0 0.0
  535 400.0 0.0
  536 450.0 0.0
  537 500.0 0.0
  538 550.0 0.0
  539 600.0 0.0
  540 650.0 0.0
  541 700.0 0.0
  542 750.0 0.0
  543 800.0 0.0
  544 850.0 0.0
  545 900.0 0.0
  546 950.0 0.0
  547 1000.0 0.0
END VERTICES

BEGIN CELL2D
  1 25.0 975.0 5 1 2 3 4 1
  2 75.0 975.0 5 2 5 6 3 2
  3 125.0 975.0 5 5 7 8 6 5
  4 175.0 975.0 5 7 9 10 8 7
  5 225.0 975.0 5 9 11 12 10 9
  6 275.0 975.0 5 11 13 14 12 11
  7 325.0 975.0 5 13 15 16 14 13
  8 375.0 975.0 5 15 17 18 16 15
  9 425.0 975.0 5 17 19 20 18 17
  10 475.0 975.0 5 19 21 22 20 19
  11 525.0 975.0 5 21 23 24 22 21
  12 575.0 975.0 5 23 25 26 24 23
  13 625.0 975.0 5 25 27 28 26 25
  14 675.0 975.0 5 27 29 30 28 27
  15 725.0 975.0 5 29 31 32 30 29
  16 775.0 975.0 5 31 33 34 32 31
  17 825.0 975.0 5 33 35 36 34 33
  18 875.0 975.0 5 35 37 38 36 35
  19 925.0 975.0 5 37 39 40 38 37
  20 975.0 975.0 5 39 41 42 40 39
  21 25.0 925.0 5 4 3 43 44 4
  22 75.0 925.0 5 3 6 45 43 3
  23 125.0 925.0 5 6 8 46 45 6
  24 175.0 925.0 5 8 10 47 46 8
  25 225.0 925.0 5 10 12 48 47 10
  26 275.0 925.0 5 12 14 49 48 12
  27 325.0 925.0 5 14 16 50 49 14
  28 375.0 925.0 5 16 18 51 50 16
  29 425.0 925.0 5 18 20 52 51 18
  30 475.0 925.0 5 20 22 53 52 20
  31 525.0 925.0 5 22 24 54 53 22
  32 575.0 925.0 5 24 26 55 54 24
  33 625.0 925.0 6 26 28 56 77 55 26
  34 675.0 925.0 5 28 30 57 56 28
  35 725.0 925.0 5 30 32 58 57 30
  36 775.0 925.0 5 32 34 59 58 32
  37 825.0 925.0 5 34 36 60 59 34
  38 875.0 925.0 5 36 38 61 60 36
  39 925.0 925.0 5 38 40 62 61 38
  40 975.0 925.0 5 40 42 63 62 40
  41 25.0 875.0 5 44 43 64 65 44
  42 75.0 875.0 5 43 45 66 64 43
  43 125.0 875.0 5 45 46 67 66 45
  44 175.0 875.0 5 46 47 68 67 46
  45 225.0 875.0 5 47 48 69 68 47
  46 275.0 875.0 5 48 49 70 69 48
  47 325.0 875.0 5 49 50 71 70 49
  48 375.0 875.0 5 50 51 72 71 50
  49 425.0 875.0 5 51 52 73 72 51
  50 475.0 875.0 5 52 53 74 73 52
  51 525.0 875.0 5 53 54 75 74 53
  52 575.0 875.0 7 54 55 79 76 102 75 54
  53 612.5 887.5 5 55 77 78 79 55
  54 637.5 887.5 5 77 56 80 78 77
  55 612.5 862.5 6 79 78 81 108 76 79
  56 637.5 862.5 6 78 80 82 119 81 78
  57 675.0 875.0 7 56 57 83 144 82 80 56
  58 725.0 875.0 5 57 58 84 83 57
  59 775.0 875.0 5 58 59 85 84 58
  60 825.0 875.0 5 59 60 86 85 59
  61 875.0 875.0 5 60 61 87 86 60
  62 925.0 875.0 5 61 62 88 87 61
  63 975.0 875.0 5 62 63 89 88 62
  64 25.0 825.0 5 65 64 90 91 65
  65 75.0 825.0 5 64 66 92 90 64
  66 125.0 825.0 5 66 67 93 92 66
  67 175.0 825.0 5 67 68 94 93 67
  68 225.0 825.0 5 68 69 95 94 68
  69 275.0 825.0 5 69 70 96 95 69
  70 325.0 825.0 5 70 71 97 96 70
  71 375.0 825.0 5 71 72 98 97 71
  72 425.0 825.0 5 72 73 99 98 72
  73 475.0 825.0 5 73 74 100 99 73
  74 525.0 825.0 6 74 75 104 101 100 74
  75 562.5 837.5 5 75 102 103 104 75
  76 587.5 837.5 6 102 76 110 105 103 102
  77 562.5 812.5 5 104 103 106 101 104
  78 587.5 812.5 6 103 105 129 107 106 103
  79 606.25 843.75 5 76 108 109 110 76
  80 618.75 843.75 6 108 81 111 113 109 108
  81 606.25 831.25 6 110 109 115 112 105 110
  82 615.625 834.375 5 109 113 114 115 109
  83 621.875 834.375 5 113 111 116 114 113
  84 615.625 828.125 5 115 114 117 112 115
  85 621.875 828.125 5 114 116 118 117 114
  86 631.25 843.75 6 81 119 120 122 111 81
  87 643.75 843.75 5 119 82 121 120 119
  88 628.125 834.375 5 111 122 123 116 111
  89 634.375 834.375 5 122 120 124 123 122
  90 628.125 828.125 5 116 123 125 118 116
  91 634.375 828.125 5 123 124 126 125 123
  92 643.75 831.25 6 120 121 127 126 124 120
  93 606.25 818.75 6 105 112 131 128 129 105
  94 615.625 821.875 5 112 117 130 131 112
  95 621.875 821.875 5 117 118 132 130 117
  96 615.625 815.625 5 131 130 133 128 131
  97 621.875 815.625 5 130 132 134 133 130
  98 606.25 806.25 5 129 128 135 107 129
  99 618.75 806.25 6 128 133 134 136 135 128
  100 628.125 821.875 5 118 125 137 132 118
  101 634.375 821.875 5 125 126 138 137 125
  102 628.125 815.625 5 132 137 139 134 132
  103 634.375 815.625 5 137 138 140 139 137
  104 643.75 818.75 6 126 127 141 140 138 126
  105 631.25 806.25 6 134 139 140 142 136 134
  106 643.75 806.25 5 140 141 143 142 140
  107 662.5 837.5 6 82 144 145 127 121 82
  108 687.5 837.5 5 144 83 146 145 144
  109 662.5 812.5 6 127 145 147 143 141 127
  110 687.5 812.5 5 145 146 148 147 145
  111 725.0 825.0 6 83 84 149 148 146 83
  112 775.0 825.0 5 84 85 150 149 84
  113 825.0 825.0 5 85 86 151 150 85
  114 875.0 825.0 5 86 87 152 151 86
  115 925.0 825.0 5 87 88 153 152 87
  116 975.0 825.0 5 88 89 154 153 88
  117 25.0 775.0 5 91 90 155 156 91
  118 75.0 775.0 5 90 92 157 155 90
  119 125.0 775.0 5 92 93 158 157 92
  120 175.0 775.0 5 93 94 159 158 93
  121 225.0 775.0 5 94 95 160 159 94
  122 275.0 775.0 5 95 96 161 160 95
  123 325.0 775.0 5 96 97 162 161 96
  124 375.0 775.0 5 97 98 163 162 97
  125 425.0 775.0 5 98 99 164 163 98
  126 475.0 775.0 5 99 100 165 164 99
  127 525.0 775.0 5 100 101 166 165 100
  128 575.0 775.0 7 101 106 107 169 167 166 101
  129 612.5 787.5 6 107 135 136 168 169 107
  130 637.5 787.5 6 136 142 143 170 168 136
  131 612.5 762.5 5 169 168 171 167 169
  132 637.5 762.5 5 168 170 172 171 168
  133 675.0 775.0 7 143 147 148 173 172 170 143
  134 725.0 775.0 5 148 149 174 173 148
  135 775.0 775.0 5 149 150 175 174 149
  136 825.0 775.0 5 150 151 176 175 150
  137 875.0 775.0 5 151 152 177 176 151
  138 925.0 775.0 5 152 153 178 177 152
  139 975.0 775.0 5 153 154 179 178 153
  140 25.0 725.0 5 156 155 180 181 156
  141 75.0 725.0 5 155 157 182 180 155
  142 125.0 725.0 5 157 158 183 182 157
  143 175.0 725.0 5 158 159 184 183 158
  144 225.0 725.0 5 159 160 185 184 159
  145 275.0 725.0 5 160 161 186 185 160
  146 325.0 725.0 5 161 162 187 186 161
  147 375.0 725.0 5 162 163 188 187 162
  148 425.0 725.0 5 163 164 189 188 163
  149 475.0 725.0 5 164 165 190 189 164
  150 525.0 725.0 5 165 166 191 190 165
  151 575.0 725.0 5 166 167 192 191 166
  152 625.0 725.0 6 167 171 172 193 192 167
  153 675.0 725.0 5 172 173 194 193 172
  154 725.0 725.0 5 173 174 195 194 173
  155 775.0 725.0 5 174 175 196 195 174
  156 825.0 725.0 5 175 176 197 196 175
  157 875.0 725.0 5 176 177 198 197 176
  158 925.0 725.0 5 177 178 199 198 177
  159 975.0 725.0 5 178 179 200 199 178
  160 25.0 675.0 5 181 180 201 202 181
  161 75.0 675.0 5 180 182 203 201 180
  162 125.0 675.0 5 182 183 204 203 182
  163 175.0 675.0 5 183 184 205 204 183
  164 225.0 675.0 5 184 185 206 205 184
  165 275.0 675.0 5 185 186 207 206 185
  166 325.0 675.0 5 186 187 208 207 186
  167 375.0 675.0 5 187 188 209 208 187
  168 425.0 675.0 5 188 189 210 209 188
  169 475.0 675.0 5 189 190 211 210 189
  170 525.0 675.0 5 190 191 212 211 190
  171 575.0 675.0 5 191 192 213 212 191
  172 625.0 675.0 5 192 193 214 213 192
  173 675.0 675.0 5 193 194 215 214 193
  174 725.0 675.0 5 194 195 216 215 194
  175 775.0 675.0 5 195 196 217 216 195
  176 825.0 675.0 5 196 197 218 217 196
  177 875.0 675.0 5 197 198 219 218 197
  178 925.0 675.0 5 198 199 220 219 198
  179 975.0 675.0 5 199 200 221 220 199
  180 25.0 625.0 5 202 201 222 223 202
  181 75.0 625.0 5 201 203 224 222 201
  182 125.0 625.0 5 203 204 225 224 203
  183 175.0 625.0 5 204 205 226 225 204
  184 225.0 625.0 5 205 206 227 226 205
  185 275.0 625.0 5 206 207 228 227 206
  186 325.0 625.0 5 207 208 229 228 207
  187 375.0 625.0 5 208 209 230 229 208
  188 425.0 625.0 5 209 210 231 230 209
  189 475.0 625.0 5 210 211 232 231 210
  190 525.0 625.0 5 211 212 233 232 211
  191 575.0 625.0 5 212 213 234 233 212
  192 625.0 625.0 5 213 214 235 234 213
  193 675.0 625.0 5 214 215 236 235 214
  194 725.0 625.0 5 215 216 237 236 215
  195 775.0 625.0 5 216 217 238 237 216
  196 825.0 625.0 5 217 218 239 238 217
  197 875.0 625.0 5 218 219 240 239 218
  198 925.0 625.0 5 219 220 241 240 219
  199 975.0 625.0 5 220 221 242 241 220
  200 25.0 575.0 5 223 222 243 244 223
  201 75.0 575.0 5 222 224 245 243 222
  202 125.0 575.0 5 224 225 246 245 224
  203 175.0 575.0 5 225 226 247 246 225
  204 225.0 575.0 5 226 227 248 247 226
  205 275.0 575.0 5 227 228 249 248 227
  206 325.0 575.0 5 228 229 250 249 228
  207 375.0 575.0 5 229 230 251 250 229
  208 425.0 575.0 5 230 231 252 251 230
  209 475.0 575.0 5 231 232 253 252 231
  210 525.0 575.0 5 232 233 254 253 232
  211 575.0 575.0 5 233 234 255 254 233
  212 625.0 575.0 5 234 235 256 255 234
  213 675.0 575.0 5 235 236 257 256 235
  214 725.0 575.0 5 236 237 258 257 236
  215 775.0 575.0 5 237 238 259 258 237
  216 825.0 575.0 5 238 239 260 259 238
  217 875.0 575.0 5 239 240 261 260 239
  218 925.0 575.0 5 240 241 262 261 240
  219 975.0 575.0 5 241 242 263 262 241
  220 25.0 525.0 5 244 243 264 265 244
  221 75.0 525.0 5 243 245 266 264 243
  222 125.0 525.0 5 245 246 267 266 245
  223 175.0 525.0 5 246 247 268 267 246
  224 225.0 525.0 5 247 248 269 268 247
  225 275.0 525.0 5 248 249 270 269 248
  226 325.0 525.0 5 249 250 271 270 249
  227 375.0 525.0 5 250 251 272 271 250
  228 425.0 525.0 6 251 252 273 294 272 251
  229 475.0 525.0 5 252 253 274 273 252
  230 525.0 525.0 5 253 254 275 274 253
  231 575.0 525.0 5 254 255 276 275 254
  232 625.0 525.0 5 255 256 277 276 255
  233 675.0 525.0 5 256 257 278 277 256
  234 725.0 525.0 5 257 258 279 278 257
  235 775.0 525.0 5 258 259 280 279 258
  236 825.0 525.0 5 259 260 281 280 259
  237 875.0 525.0 5 260 261 282 281 260
  238 925.0 525.0 5 261 262 283 282 261
  239 975.0 525.0 5 262 263 284 283 262
  240 25.0 475.0 5 265 264 285 286 265
  241 75.0 475.0 5 264 266 287 285 264
  242 125.0 475.0 5 266 267 288 287 266
  243 175.0 475.0 5 267 268 289 288 267
  244 225.0 475.0 5 268 269 290 289 268
  245 275.0 475.0 5 269 270 291 290 269
  246 325.0 475.0 5 270 271 292 291 270
  247 375.0 475.0 7 271 272 296 293 319 292 271
  248 412.5 487.5 5 272 294 295 296 272
  249 437.5 487.5 5 294 273 297 295 294
  250 412.5 462.5 6 296 295 298 325 293 296
  251 437.5 462.5 6 295 297 299 336 298 295
  252 475.0 475.0 7 273 274 300 361 299 297 273
  253 525.0 475.0 5 274 275 301 300 274
  254 575.0 475.0 5 275 276 302 301 275
  255 625.0 475.0 5 276 277 303 302 276
  256 675.0 475.0 5 277 278 304 303 277
  257 725.0 475.0 5 278 279 305 304 278
  258 775.0 475.0 5 279 280 306 305 279
  259 825.0 475.0 5 280 281 307 306 280
  260 875.0 475.0 5 281 282 308 307 281
  261 925.0 475.0 5 282 283 309 308 282
  262 975.0 475.0 5 283 284 310 309 283
  263 25.0 425.0 5 286 285 311 312 286
  264 75.0 425.0 5 285 287 313 311 285
  265 125.0 425.0 5 287 288 314 313 287
  266 175.0 425.0 5 288 289 315 314 288
  267 225.0 425.0 5 289 290 316 315 289
  268 275.0 425.0 5 290 291 317 316 290
  269 325.0 425.0 6 291 292 321 318 317 291
  270 362.5 437.5 5 292 319 320 321 292
  271 387.5 437.5 6 319 293 327 322 320 319
  272 362.5 412.5 5 321 320 323 318 321
  273 387.5 412.5 6 320 322 346 324 323 320
  274 406.25 443.75 5 293 325 326 327 293
  275 418.75 443.75 6 325 298 328 330 326 325
  276 406.25 431.25 6 327 326 332 329 322 327
  277 415.625 434.375 5 326 330 331 332 326
  278 421.875 434.375 5 330 328 333 331 330
  279 415.625 428.125 5 332 331 334 329 332
  280 421.875 428.125 5 331 333 335 334 331
  281 431.25 443.75 6 298 336 337 339 328 298
  282 443.75 443.75 5 336 299 338 337 336
  283 428.125 434.375 5 328 339 340 333 328
  284 434.375 434.375 5 339 337 341 340 339
  285 428.125 428.125 5 333 340 342 335 333
  286 434.375 428.125 5 340 341 343 342 340
  287 443.75 431.25 6 337 338 344 343 341 337
  288 406.25 418.75 6 322 329 348 345 346 322
  289 415.625 421.875 5 329 334 347 348 329
  290 421.875 421.875 5 334 335 349 347 334
  291 415.625 415.625 5 348 347 350 345 348
  292 421.875 415.625 5 347 349 351 350 347
  293 406.25 406.25 5 346 345 352 324 346
  294 418.75 406.25 6 345 350 351 353 352 345
  295 428.125 421.875 5 335 342 354 349 335
  296 434.375 421.875 5 342 343 355 354 342
  297 428.125 415.625 5 349 354 356 351 349
  298 434.375 415.625 5 354 355 357 356 354
  299 443.75 418.75 6 343 344 358 357 355 343
  300 431.25 406.25 6 351 356 357 359 353 351
  301 443.75 406.25 5 357 358 360 359 357
  302 462.5 437.5 6 299 361 362 344 338 299
  303 487.5 437.5 5 361 300 363 362 361
  304 462.5 412.5 6 344 362 364 360 358 344
  305 487.5 412.5 5 362 363 365 364 362
  306 525.0 425.0 6 300 301 366 365 363 300
  307 575.0 425.0 5 301 302 367 366 301
  308 625.0 425.0 5 302 303 368 367 302
  309 675.0 425.0 5 303 304 369 368 303
  310 725.0 425.0 5 304 305 370 369 304
  311 775.0 425.0 5 305 306 371 370 305
  312 825.0 425.0 5 306 307 372 371 306
  313 875.0 425.0 5 307 308 373 372 307
  314 925.0 425.0 5 308 309 374 373 308
  315 975.0 425.0 5 309 310 375 374 309
  316 25.0 375.0 5 312 311 376 377 312