BEGIN options
END options

BEGIN dimensions
  MAXBOUND  100
END dimensions

BEGIN period  1
  1 1 1      10.00000000
  1 2 1      10.00000000
  1 3 1      10.00000000
  1 4 1      10.00000000
  1 5 1      10.00000000
  1 6 1      10.00000000
  1 7 1      10.00000000
  1 8 1      10.00000000
  1 9 1      10.00000000
  1 10 1      10.00000000
  1 11 1      10.00000000
  1 12 1      10.00000000
  1 13 1      10.00000000
  1 14 1      10.00000000
  1 15 1      10.00000000
  1 16 1      10.00000000
  1 17 1      10.00000000
  1 18 1      10.00000000
  1 19 1      10.00000000
  1 20 1      10.00000000
  1 21 1      10.00000000
  1 22 1      10.00000000
  1 23 1      10.00000000
  1 24 1      10.00000000
  1 25 1      10.00000000
  1 26 1      10.00000000
  1 27 1      10.00000000
  1 28 1      10.00000000
  1 29 1      10.00000000
  1 30 1      10.00000000
  1 31 1      10.00000000
  1 32 1      10.00000000
  1 33 1      10.00000000
  1 34 1      10.00000000
  1 35 1      10.00000000
  1 36 1      10.00000000
  1 37 1      10.00000000
  1 38 1      10.00000000
  1 39 1      10.00000000
  1 40 1      10.00000000
  1 41 1      10.00000000
  1 42 1      10.00000000
  1 43 1      10.00000000
  1 44 1      10.00000000
  1 45 1      10.00000000
  1 46 1      10.00000000
  1 47 1      10.00000000
  1 48 1      10.00000000
  1 49 1      10.00000000
  1 50 1      10.00000000
  1 1 50       1.00000000
  1 2 50       1.00000000
  1 3 50       1.00000000
  1 4 50       1.00000000
  1 5 50       1.00000000
  1 6 50       1.00000000
  1 7 50       1.00000000
  1 8 50       1.00000000
  1 9 50       1.00000000
  1 10 50       1.00000000
  1 11 50       1.00000000
  1 12 50       1.00000000
  1 13 50       1.00000000
  1 14 50       1.00000000
  1 15 50       1.00000000
  1 16 50       1.00000000
  1 17 50       1.00000000
  1 18 50       1.00000000
  1 19 50       1.00000000
  1 20 50       1.00000000
  1 21 50       1.00000000
  1 22 50       1.00000000
  1 23 50       1.00000000
  1 24 50       1.00000000
  1 25 50       1.00000000
  1 26 50       1.00000000
  1 27 50       1.00000000
  1 28 50       1.00000000
  1 29 50       1.00000000
  1 30 50       1.00000000
  1 31 50       1.00000000
  1 32 50       1.00000000
  1 33 50       1.00000000
  1 34 50       1.00000000
  1 35 50       1.00000000
  1 36 50       1.00000000
  1 37 50       1.00000000
  1 38 50       1.00000000
  1 39 50       1.00000000
  1 40 50       1.00000000
  1 41 50       1.00000000
  1 42 50       1.00000000
  1 43 50       1.00000000
  1 44 50       1.00000000
  1 45 50       1.00000000
  1 46 50       1.00000000
  1 47 50       1.00000000
  1 48 50       1.00000000
  1 49 50       1.00000000
  1 50 50       1.00000000
END period  1

