BEGIN options
  BUDGET  FILEOUT  ex1.cbc
  HEAD  FILEOUT  ex1.hds
END options

BEGIN period  1
  SAVE  HEAD  ALL
  SAVE  BUDGET  ALL
  PRINT  HEAD  LAST
END period  1

