BEGIN options
  TIME_UNITS  seconds
END options

BEGIN dimensions
  NPER  2
END dimensions

BEGIN perioddata
       1.00000000  10       1.00000000
   86400.00000000  24       1.00000000
END perioddata

