BEGIN options
END options

BEGIN dimensions
  MAXBOUND  20
END dimensions

BEGIN period  1
  1 1 1      95.10000000
  1 2 1      95.10000000
  1 3 1      95.10000000
  1 4 1      95.10000000
  1 5 1      95.10000000
  1 6 1      95.10000000
  1 7 1      95.10000000
  1 8 1      95.10000000
  1 9 1      95.10000000
  1 10 1      95.10000000
  1 11 20      99.10000000
  1 12 20      99.10000000
  1 13 20      99.10000000
  1 14 20      99.10000000
  1 15 20      99.10000000
  1 16 20      99.10000000
  1 17 20      99.10000000
  1 18 20      99.10000000
  1 19 20      99.10000000
  1 20 20      99.10000000
END period  1

