BEGIN griddata
  strt
    CONSTANT      99.00000000
END griddata

