BEGIN options
  BUDGET  FILEOUT  ex2.cbc
  HEAD  FILEOUT  ex2.hds
END options

BEGIN period  1
  SAVE  HEAD  ALL
  SAVE  BUDGET  ALL
  PRINT  HEAD  ALL
  PRINT  BUDGET  ALL
END period  1

BEGIN period  2
  SAVE  HEAD  ALL
  SAVE  BUDGET  ALL
END period  2

